Circuit: .title KiCad schematic

Limiting rise time of source v3 to 2.5e-05
Limiting fall time of source v3 to 2.5e-05
Limiting rise time of source v2 to 2.5e-05
Limiting fall time of source v2 to 2.5e-05
Limiting rise time of source v4 to 2.5e-05
Limiting fall time of source v4 to 2.5e-05
Limiting rise time of source v5 to 2.5e-05
Limiting fall time of source v5 to 2.5e-05
Instance "m:u1:mp1:1": Width narrower than recommended for a level 3 MOSFET.
Instance "m:u1:mp2:1": Width narrower than recommended for a level 3 MOSFET.
Instance "m:u1:mn1:1": Width narrower than recommended for a level 3 MOSFET.
Instance "m:u1:mn2:1": Width narrower than recommended for a level 3 MOSFET.
Direct Newton iteration for .op point succeeded.
Ignoring empty pin current: Ix(mes1:in+)
Ignoring empty pin current: Ix(mes1:in-)
Ignoring empty pin current: Ix(mes1:in+)
Ignoring empty pin current: Ix(mes1:in-)

Date: Tue Jan 16 11:50:18 2024
Total elapsed time: 0.150 seconds.

tnom = 27
temp = 27
method = modified trap
totiter = 11801
traniter = 11766
tranpoints = 3609
accept = 2899
rejected = 710
matrix size = 64
fillins = 28
solver = Normal
Avg thread counts: 1.5/2.6/2.6/1.5
Matrix Compiler1: 5.48 KB object code size  1.7/0.8/[0.8]
Matrix Compiler2: 5.70 KB object code size  0.5/0.6/[0.5]

